<?xml version='1.0' encoding='utf-8'?>
<feed xmlns="http://www.w3.org/2005/Atom" xml:lang="en">
  <id>https://aazw.github.io/github-trending-feeds/feeds/fortran/daily.atom</id>
  <title>GitHub Trending - fortran (daily)</title>
  <link href="https://aazw.github.io/github-trending-feeds/feeds/fortran/daily.atom" rel="self" />
  <link href="https://aazw.github.io/github-trending-feeds/" rel="alternate" />
  <icon>https://github.githubassets.com/favicons/favicon.svg</icon>
  <updated>2025-02-06T00:00:00</updated>
  <author>
    <name>aazw</name>
  </author>
  <entry>
    <id>https://github.com/E3SM-Project/E3SM#1738800000</id>
    <title>https://github.com/E3SM-Project/E3SM</title>
    <link href="https://github.com/E3SM-Project/E3SM" />
    <updated>2025-02-06T00:00:00</updated>
    <content type="text">Energy Exascale Earth System Model source code. NOTE: use "maint" branches for your work. Head of master is not validated.</content>
  </entry>
  <entry>
    <id>https://github.com/MCSclimate/MCT#1738800000</id>
    <title>https://github.com/MCSclimate/MCT</title>
    <link href="https://github.com/MCSclimate/MCT" />
    <updated>2025-02-06T00:00:00</updated>
    <content type="text">Model Coupling Tookit</content>
  </entry>
  <entry>
    <id>https://github.com/MODFLOW-USGS/modflow6#1738800000</id>
    <title>https://github.com/MODFLOW-USGS/modflow6</title>
    <link href="https://github.com/MODFLOW-USGS/modflow6" />
    <updated>2025-02-06T00:00:00</updated>
    <content type="text">USGS Modular Hydrologic Model</content>
  </entry>
  <entry>
    <id>https://github.com/NGEET/fates#1738800000</id>
    <title>https://github.com/NGEET/fates</title>
    <link href="https://github.com/NGEET/fates" />
    <updated>2025-02-06T00:00:00</updated>
    <content type="text">repository for the Functionally Assembled Terrestrial Ecosystem Simulator (FATES)</content>
  </entry>
  <entry>
    <id>https://github.com/NOAA-EMC/WW3#1738800000</id>
    <title>https://github.com/NOAA-EMC/WW3</title>
    <link href="https://github.com/NOAA-EMC/WW3" />
    <updated>2025-02-06T00:00:00</updated>
    <content type="text">WAVEWATCH III</content>
  </entry>
  <entry>
    <id>https://github.com/NOAA-GFDL/FMS#1738800000</id>
    <title>https://github.com/NOAA-GFDL/FMS</title>
    <link href="https://github.com/NOAA-GFDL/FMS" />
    <updated>2025-02-06T00:00:00</updated>
    <content type="text">GFDL's Flexible Modeling System</content>
  </entry>
  <entry>
    <id>https://github.com/NOAA-GFDL/GFDL_atmos_cubed_sphere#1738800000</id>
    <title>https://github.com/NOAA-GFDL/GFDL_atmos_cubed_sphere</title>
    <link href="https://github.com/NOAA-GFDL/GFDL_atmos_cubed_sphere" />
    <updated>2025-02-06T00:00:00</updated>
    <content type="text">The GFDL atmos_cubed_sphere dynamical core code</content>
  </entry>
  <entry>
    <id>https://github.com/OpenFAST/openfast#1738800000</id>
    <title>https://github.com/OpenFAST/openfast</title>
    <link href="https://github.com/OpenFAST/openfast" />
    <updated>2025-02-06T00:00:00</updated>
    <content type="text">Main repository for the NREL-supported OpenFAST whole-turbine and FAST.Farm wind farm simulation codes.</content>
  </entry>
  <entry>
    <id>https://github.com/ROCm/aomp#1738800000</id>
    <title>https://github.com/ROCm/aomp</title>
    <link href="https://github.com/ROCm/aomp" />
    <updated>2025-02-06T00:00:00</updated>
    <content type="text">AOMP is an open source Clang/LLVM based compiler with added support for the OpenMP® API on Radeon™ GPUs. Use this repository for releases, issues, documentation, packaging, and examples.</content>
  </entry>
  <entry>
    <id>https://github.com/cp2k/cp2k#1738800000</id>
    <title>https://github.com/cp2k/cp2k</title>
    <link href="https://github.com/cp2k/cp2k" />
    <updated>2025-02-06T00:00:00</updated>
    <content type="text">Quantum chemistry and solid state physics software package</content>
  </entry>
  <entry>
    <id>https://github.com/earth-system-radiation/rte-rrtmgp#1738800000</id>
    <title>https://github.com/earth-system-radiation/rte-rrtmgp</title>
    <link href="https://github.com/earth-system-radiation/rte-rrtmgp" />
    <updated>2025-02-06T00:00:00</updated>
    <content type="text">RTE+RRTMGP is a set of codes for computing radiative fluxes in planetary atmospheres.</content>
  </entry>
  <entry>
    <id>https://github.com/esmf-org/esmf#1738800000</id>
    <title>https://github.com/esmf-org/esmf</title>
    <link href="https://github.com/esmf-org/esmf" />
    <updated>2025-02-06T00:00:00</updated>
    <content type="text">The Earth System Modeling Framework (ESMF) is a suite of software tools for developing high-performance, multi-component Earth science modeling applications.</content>
  </entry>
  <entry>
    <id>https://github.com/firemodels/fds#1738800000</id>
    <title>https://github.com/firemodels/fds</title>
    <link href="https://github.com/firemodels/fds" />
    <updated>2025-02-06T00:00:00</updated>
    <content type="text">Fire Dynamics Simulator</content>
  </entry>
  <entry>
    <id>https://github.com/grimme-lab/xtb#1738800000</id>
    <title>https://github.com/grimme-lab/xtb</title>
    <link href="https://github.com/grimme-lab/xtb" />
    <updated>2025-02-06T00:00:00</updated>
    <content type="text">Semiempirical Extended Tight-Binding Program Package</content>
  </entry>
  <entry>
    <id>https://github.com/wrf-model/WRF#1738800000</id>
    <title>https://github.com/wrf-model/WRF</title>
    <link href="https://github.com/wrf-model/WRF" />
    <updated>2025-02-06T00:00:00</updated>
    <content type="text">The official repository for the Weather Research and Forecasting (WRF) model</content>
  </entry>
</feed>