<?xml version='1.0' encoding='utf-8'?>
<feed xmlns="http://www.w3.org/2005/Atom" xml:lang="en">
  <id>https://aazw.github.io/github-trending-feeds/feeds/fortran/daily.atom</id>
  <title>GitHub Trending - fortran (daily)</title>
  <link href="https://aazw.github.io/github-trending-feeds/feeds/fortran/daily.atom" rel="self" />
  <link href="https://aazw.github.io/github-trending-feeds/" rel="alternate" />
  <icon>https://github.githubassets.com/favicons/favicon.svg</icon>
  <updated>2025-02-22T00:00:00</updated>
  <author>
    <name>aazw</name>
  </author>
  <entry>
    <id>https://github.com/CFMIP/COSPv2.0#1740182400</id>
    <title>https://github.com/CFMIP/COSPv2.0</title>
    <link href="https://github.com/CFMIP/COSPv2.0" />
    <updated>2025-02-22T00:00:00</updated>
    <content type="text">COSP - The CFMIP (Cloud Feedbacks Model Intercomparison Project) Observation Simulator Package</content>
  </entry>
  <entry>
    <id>https://github.com/MCSclimate/MCT#1740182400</id>
    <title>https://github.com/MCSclimate/MCT</title>
    <link href="https://github.com/MCSclimate/MCT" />
    <updated>2025-02-22T00:00:00</updated>
    <content type="text">Model Coupling Tookit</content>
  </entry>
  <entry>
    <id>https://github.com/NGEET/fates#1740182400</id>
    <title>https://github.com/NGEET/fates</title>
    <link href="https://github.com/NGEET/fates" />
    <updated>2025-02-22T00:00:00</updated>
    <content type="text">repository for the Functionally Assembled Terrestrial Ecosystem Simulator (FATES)</content>
  </entry>
  <entry>
    <id>https://github.com/NOAA-EMC/WW3#1740182400</id>
    <title>https://github.com/NOAA-EMC/WW3</title>
    <link href="https://github.com/NOAA-EMC/WW3" />
    <updated>2025-02-22T00:00:00</updated>
    <content type="text">WAVEWATCH III</content>
  </entry>
  <entry>
    <id>https://github.com/earth-system-radiation/rte-rrtmgp#1740182400</id>
    <title>https://github.com/earth-system-radiation/rte-rrtmgp</title>
    <link href="https://github.com/earth-system-radiation/rte-rrtmgp" />
    <updated>2025-02-22T00:00:00</updated>
    <content type="text">RTE+RRTMGP is a set of codes for computing radiative fluxes in planetary atmospheres.</content>
  </entry>
  <entry>
    <id>https://github.com/esmf-org/esmf#1740182400</id>
    <title>https://github.com/esmf-org/esmf</title>
    <link href="https://github.com/esmf-org/esmf" />
    <updated>2025-02-22T00:00:00</updated>
    <content type="text">The Earth System Modeling Framework (ESMF) is a suite of software tools for developing high-performance, multi-component Earth science modeling applications.</content>
  </entry>
</feed>